res_rel.dtl: written by SWAT+ editor on 2021-12-09 12:09
6

name                     conds      alts      acts  
darnius_boadella            25        60        60		
var                        obj   obj_num           lim_var            lim_op     lim_const      alt1      alt2      alt3      alt4      alt5      alt6      alt7      alt8      alt9     alt10     alt11     alt12     alt13     alt14     alt15     alt16     alt17     alt18     alt19     alt20     alt21     alt22     alt23     alt24     alt25     alt26     alt27     alt28     alt29     alt30     alt31     alt32     alt33     alt34     alt35     alt36     alt37     alt38     alt39     alt40     alt41     alt42     alt43     alt44     alt45     alt46     alt47     alt48     alt49     alt50     alt51     alt52     alt53     alt54     alt55     alt56     alt57     alt58     alt59     alt60  
vol                        res         0              null                 -    5000.00000         >         <         -         -         -         >         <         -         -         -         -         -         -         -         -         -         -         -         -         -         -         -         -         -         -         -         -         -         -         -         -         -         -         -         -         -         -         -         -         -         >         <         -         -         -         >         <         -         -         -         >         <         -         -         -         >         <         -         -         -  
vol                        res         0              null                 -    5700.00000         -         -         -         -         -         -         -         -         -         -         >         <         -         -         -         >         <         -         -         -         >         <         -         -         -         -         -         -         -         -         -         -         -         -         -         -         -         -         -         -         -         -         -         -         -         -         -         -         -         -         -         -         -         -         -         -         -         -         -         -  
vol                        res         0              null                 -    6000.00000         -         -         -         -         -         -         -         -         -         -         -         -         -         -         -         -         -         -         -         -         -         -         -         -         -         >         <         -         -         -         >         <         -         -         -         >         <         -         -         -         -         -         -         -         -         -         -         -         -         -         -         -         -         -         -         -         -         -         -         -  
vol                        res         0              null                 -    2300.00000         -         >         <         -         -         -         -         -         -         -         -         -         -         -         -         -         -         -         -         -         -         -         -         -         -         -         -         -         -         -         -         -         -         -         -         -         -         -         -         -         -         >         <         -         -         -         >         <         -         -         -         >         <         -         -         -         >         <         -         -  
vol                        res         0              null                 -    2700.00000         -         -         -         -         -         -         >         <         -         -         -         -         -         -         -         -         -         -         -         -         -         -         -         -         -         -         -         -         -         -         -         -         -         -         -         -         >         <         -         -         -         -         -         -         -         -         -         -         -         -         -         -         -         -         -         -         -         -         -         -  
vol                        res         0              null                 -    3100.00000         -         -         -         -         -         -         -         -         -         -         -         >         <         -         -         -         -         -         -         -         -         -         -         -         -         -         -         -         -         -         -         >         <         -         -         -         -         -         -         -         -         -         -         -         -         -         -         -         -         -         -         -         -         -         -         -         -         -         -         -  
vol                        res         0              null                 -    3500.00000         -         -         -         -         -         -         -         -         -         -         -         -         -         -         -         -         >         <         -         -         -         >         <         -         -         -         >         <         -         -         -         -         -         -         -         -         -         -         -         -         -         -         -         -         -         -         -         -         -         -         -         -         -         -         -         -         -         -         -         -  
vol                        res         0              null                 -    1600.00000         -         -         >         <         -         -         -         >         <         -         -         -         -         -         -         -         -         -         -         -         -         -         -         -         -         -         -         -         -         -         -         -         -         -         -         -         -         -         -         -         -         -         >         <         -         -         -         >         <         -         -         -         >         <         -         -         -         >         <         -  
vol                        res         0              null                 -    1700.00000         -         -         -         -         -         -         -         -         -         -         -         -         >         <         -         -         -         -         -         -         -         -         -         -         -         -         -         -         -         -         -         -         -         -         -         -         -         -         -         -         -         -         -         -         -         -         -         -         -         -         -         -         -         -         -         -         -         -         -         -  
vol                        res         0              null                 -    1800.00000         -         -         -         -         -         -         -         -         -         -         -         -         -         -         -         -         -         >         <         -         -         -         -         -         -         -         -         -         -         -         -         -         -         -         -         -         -         -         -         -         -         -         -         -         -         -         -         -         -         -         -         -         -         -         -         -         -         -         -         -  
vol                        res         0              null                 -    1900.00000         -         -         -         -         -         -         -         -         -         -         -         -         -         -         -         -         -         -         -         -         -         -         >         <         -         -         -         >         <         -         -         -         >         <         -         -         -         -         -         -         -         -         -         -         -         -         -         -         -         -         -         -         -         -         -         -         -         -         -         -  
vol                        res         0              null                 -    1750.00000         -         -         -         -         -         -         -         -         -         -         -         -         -         -         -         -         -         -         -         -         -         -         -         -         -         -         -         -         -         -         -         -         -         -         -         -         -         >         <         -         -         -         -         -         -         -         -         -         -         -         -         -         -         -         -         -         -         -         -         -  
vol                        res         0              null                 -    1100.00000         -         -         -         >         <         -         -         -         >         <         -         -         -         >         <         -         -         -         >         <         -         -         -         >         <         -         -         -         >         <         -         -         -         >         <         -         -         -         >         <         -         -         -         >         <         -         -         -         >         <         -         -         -         >         <         -         -         -         >         <  
month                     null         0              null                 -       1.00000         =         =         =         =         =         -         -         -         -         -         -         -         -         -         -         -         -         -         -         -         -         -         -         -         -         -         -         -         -         -         -         -         -         -         -         -         -         -         -         -         -         -         -         -         -         -         -         -         -         -         -         -         -         -         -         -         -         -         -         -  
month                     null         0              null                 -       2.00000         -         -         -         -         -         =         =         =         =         =         -         -         -         -         -         -         -         -         -         -         -         -         -         -         -         -         -         -         -         -         -         -         -         -         -         -         -         -         -         -         -         -         -         -         -         -         -         -         -         -         -         -         -         -         -         -         -         -         -         -  
month                     null         0              null                 -       3.00000         -         -         -         -         -         -         -         -         -         -         =         =         =         =         =         -         -         -         -         -         -         -         -         -         -         -         -         -         -         -         -         -         -         -         -         -         -         -         -         -         -         -         -         -         -         -         -         -         -         -         -         -         -         -         -         -         -         -         -         -  
month                     null         0              null                 -       4.00000         -         -         -         -         -         -         -         -         -         -         -         -         -         -         -         =         =         =         =         =         -         -         -         -         -         -         -         -         -         -         -         -         -         -         -         -         -         -         -         -         -         -         -         -         -         -         -         -         -         -         -         -         -         -         -         -         -         -         -         -  
month                     null         0              null                 -       5.00000         -         -         -         -         -         -         -         -         -         -         -         -         -         -         -         -         -         -         -         -         =         =         =         =         =         -         -         -         -         -         -         -         -         -         -         -         -         -         -         -         -         -         -         -         -         -         -         -         -         -         -         -         -         -         -         -         -         -         -         -  
month                     null         0              null                 -       6.00000         -         -         -         -         -         -         -         -         -         -         -         -         -         -         -         -         -         -         -         -         -         -         -         -         -         =         =         =         =         =         -         -         -         -         -         -         -         -         -         -         -         -         -         -         -         -         -         -         -         -         -         -         -         -         -         -         -         -         -         -  
month                     null         0              null                 -       7.00000         -         -         -         -         -         -         -         -         -         -         -         -         -         -         -         -         -         -         -         -         -         -         -         -         -         -         -         -         -         -         =         =         =         =         =         -         -         -         -         -         -         -         -         -         -         -         -         -         -         -         -         -         -         -         -         -         -         -         -         -  
month                     null         0              null                 -       8.00000         -         -         -         -         -         -         -         -         -         -         -         -         -         -         -         -         -         -         -         -         -         -         -         -         -         -         -         -         -         -         -         -         -         -         -         =         =         =         =         =         -         -         -         -         -         -         -         -         -         -         -         -         -         -         -         -         -         -         -         -  
month                     null         0              null                 -       9.00000         -         -         -         -         -         -         -         -         -         -         -         -         -         -         -         -         -         -         -         -         -         -         -         -         -         -         -         -         -         -         -         -         -         -         -         -         -         -         -         -         =         =         =         =         =         -         -         -         -         -         -         -         -         -         -         -         -         -         -         -  
month                     null         0              null                 -      10.00000         -         -         -         -         -         -         -         -         -         -         -         -         -         -         -         -         -         -         -         -         -         -         -         -         -         -         -         -         -         -         -         -         -         -         -         -         -         -         -         -         -         -         -         -         -         =         =         =         =         =         -         -         -         -         -         -         -         -         -         -  
month                     null         0              null                 -      11.00000         -         -         -         -         -         -         -         -         -         -         -         -         -         -         -         -         -         -         -         -         -         -         -         -         -         -         -         -         -         -         -         -         -         -         -         -         -         -         -         -         -         -         -         -         -         -         -         -         -         -         =         =         =         =         =         -         -         -         -         -  
month                     null         0              null                 -      12.00000         -         -         -         -         -         -         -         -         -         -         -         -         -         -         -         -         -         -         -         -         -         -         -         -         -         -         -         -         -         -         -         -         -         -         -         -         -         -         -         -         -         -         -         -         -         -         -         -         -         -         -         -         -         -         -         =         =         =         =         =  
act_typ                    obj   obj_num              name            option         const        const2                fp  outcome           
release                    res         0            over_1        inflo_rate       1.38090       0.00000              null  y   n	n	n	n	n	n	n	n	n	n	n	n	n	n	n	n	n	n	n	n	n	n	n	n	n	n	n	n	n	n	n	n	n	n	n	n	n	n	n	n	n	n	n	n	n	n	n	n	n	n	n	n	n	n	n	n	n	n	n
release                    res         0          normal_1              rate       0.41400       0.00000              null	n	y	n	n	n	n	n	n	n	n	n	n	n	n	n	n	n	n	n	n	n	n	n	n	n	n	n	n	n	n	n	n	n	n	n	n	n	n	n	n	n	n	n	n	n	n	n	n	n	n	n	n	n	n	n	n	n	n	n	n
release                    res         0          alerta_1              rate       0.41252       0.00000              null	n	n	y	n	n	n	n	n	n	n	n	n	n	n	n	n	n	n	n	n	n	n	n	n	n	n	n	n	n	n	n	n	n	n	n	n	n	n	n	n	n	n	n	n	n	n	n	n	n	n	n	n	n	n	n	n	n	n	n	n
release                    res         0           excep_1              rate       0.51050       0.00000              null	n	n	n	y	n	n	n	n	n	n	n	n	n	n	n	n	n	n	n	n	n	n	n	n	n	n	n	n	n	n	n	n	n	n	n	n	n	n	n	n	n	n	n	n	n	n	n	n	n	n	n	n	n	n	n	n	n	n	n	n
release                    res         0           emerg_1              rate       0.19826       0.00000              null	n	n	n	n	y	n	n	n	n	n	n	n	n	n	n	n	n	n	n	n	n	n	n	n	n	n	n	n	n	n	n	n	n	n	n	n	n	n	n	n	n	n	n	n	n	n	n	n	n	n	n	n	n	n	n	n	n	n	n	n
release                    res         0            over_2        inflo_rate       0.58789       0.00000              null	n	n	n	n	n	y	n	n	n	n	n	n	n	n	n	n	n	n	n	n	n	n	n	n	n	n	n	n	n	n	n	n	n	n	n	n	n	n	n	n	n	n	n	n	n	n	n	n	n	n	n	n	n	n	n	n	n	n	n	n
release                    res         0          normal_2              rate       0.36276       0.00000              null	n	n	n	n	n	n	y	n	n	n	n	n	n	n	n	n	n	n	n	n	n	n	n	n	n	n	n	n	n	n	n	n	n	n	n	n	n	n	n	n	n	n	n	n	n	n	n	n	n	n	n	n	n	n	n	n	n	n	n	n
release                    res         0          alerta_2              rate       0.44159       0.00000              null	n	n	n	n	n	n	n	y	n	n	n	n	n	n	n	n	n	n	n	n	n	n	n	n	n	n	n	n	n	n	n	n	n	n	n	n	n	n	n	n	n	n	n	n	n	n	n	n	n	n	n	n	n	n	n	n	n	n	n	n
release                    res         0           excep_2              rate       0.48100       0.00000              null	n	n	n	n	n	n	n	n	y	n	n	n	n	n	n	n	n	n	n	n	n	n	n	n	n	n	n	n	n	n	n	n	n	n	n	n	n	n	n	n	n	n	n	n	n	n	n	n	n	n	n	n	n	n	n	n	n	n	n	n
release                    res         0           emerg_2              rate       0.19529       0.00000              null	n	n	n	n	n	n	n	n	n	y	n	n	n	n	n	n	n	n	n	n	n	n	n	n	n	n	n	n	n	n	n	n	n	n	n	n	n	n	n	n	n	n	n	n	n	n	n	n	n	n	n	n	n	n	n	n	n	n	n	n
release                    res         0            over_3        inflo_rate       2.79159       0.00000              null	n	n	n	n	n	n	n	n	n	n	y	n	n	n	n	n	n	n	n	n	n	n	n	n	n	n	n	n	n	n	n	n	n	n	n	n	n	n	n	n	n	n	n	n	n	n	n	n	n	n	n	n	n	n	n	n	n	n	n	n
release                    res         0          normal_3              rate       0.33900       0.00000              null	n	n	n	n	n	n	n	n	n	n	n	y	n	n	n	n	n	n	n	n	n	n	n	n	n	n	n	n	n	n	n	n	n	n	n	n	n	n	n	n	n	n	n	n	n	n	n	n	n	n	n	n	n	n	n	n	n	n	n	n
release                    res         0          alerta_3              rate       0.44970       0.00000              null	n	n	n	n	n	n	n	n	n	n	n	n	y	n	n	n	n	n	n	n	n	n	n	n	n	n	n	n	n	n	n	n	n	n	n	n	n	n	n	n	n	n	n	n	n	n	n	n	n	n	n	n	n	n	n	n	n	n	n	n
release                    res         0           excep_3              rate       0.48650       0.00000              null	n	n	n	n	n	n	n	n	n	n	n	n	n	y	n	n	n	n	n	n	n	n	n	n	n	n	n	n	n	n	n	n	n	n	n	n	n	n	n	n	n	n	n	n	n	n	n	n	n	n	n	n	n	n	n	n	n	n	n	n
release                    res         0           emerg_3              rate       0.20859       0.00000              null	n	n	n	n	n	n	n	n	n	n	n	n	n	n	y	n	n	n	n	n	n	n	n	n	n	n	n	n	n	n	n	n	n	n	n	n	n	n	n	n	n	n	n	n	n	n	n	n	n	n	n	n	n	n	n	n	n	n	n	n
release                    res         0            over_4        inflo_rate       0.64890       0.00000              null	n	n	n	n	n	n	n	n	n	n	n	n	n	n	n	y	n	n	n	n	n	n	n	n	n	n	n	n	n	n	n	n	n	n	n	n	n	n	n	n	n	n	n	n	n	n	n	n	n	n	n	n	n	n	n	n	n	n	n	n
release                    res         0          normal_4              rate       0.44604       0.00000              null	n	n	n	n	n	n	n	n	n	n	n	n	n	n	n	n	y	n	n	n	n	n	n	n	n	n	n	n	n	n	n	n	n	n	n	n	n	n	n	n	n	n	n	n	n	n	n	n	n	n	n	n	n	n	n	n	n	n	n	n
release                    res         0          alerta_4              rate       0.44081       0.00000              null	n	n	n	n	n	n	n	n	n	n	n	n	n	n	n	n	n	y	n	n	n	n	n	n	n	n	n	n	n	n	n	n	n	n	n	n	n	n	n	n	n	n	n	n	n	n	n	n	n	n	n	n	n	n	n	n	n	n	n	n
release                    res         0           excep_4              rate       0.45775       0.00000              null	n	n	n	n	n	n	n	n	n	n	n	n	n	n	n	n	n	n	y	n	n	n	n	n	n	n	n	n	n	n	n	n	n	n	n	n	n	n	n	n	n	n	n	n	n	n	n	n	n	n	n	n	n	n	n	n	n	n	n	n
release                    res         0           emerg_4              rate       0.20733       0.00000              null	n	n	n	n	n	n	n	n	n	n	n	n	n	n	n	n	n	n	n	y	n	n	n	n	n	n	n	n	n	n	n	n	n	n	n	n	n	n	n	n	n	n	n	n	n	n	n	n	n	n	n	n	n	n	n	n	n	n	n	n
release                    res         0            over_5        inflo_rate       1.14333       0.00000              null	n	n	n	n	n	n	n	n	n	n	n	n	n	n	n	n	n	n	n	n	y	n	n	n	n	n	n	n	n	n	n	n	n	n	n	n	n	n	n	n	n	n	n	n	n	n	n	n	n	n	n	n	n	n	n	n	n	n	n	n
release                    res         0          normal_5              rate       0.67388       0.00000              null	n	n	n	n	n	n	n	n	n	n	n	n	n	n	n	n	n	n	n	n	n	y	n	n	n	n	n	n	n	n	n	n	n	n	n	n	n	n	n	n	n	n	n	n	n	n	n	n	n	n	n	n	n	n	n	n	n	n	n	n
release                    res         0          alerta_5              rate       0.43042       0.00000              null	n	n	n	n	n	n	n	n	n	n	n	n	n	n	n	n	n	n	n	n	n	n	y	n	n	n	n	n	n	n	n	n	n	n	n	n	n	n	n	n	n	n	n	n	n	n	n	n	n	n	n	n	n	n	n	n	n	n	n	n
release                    res         0           excep_5              rate       0.45320       0.00000              null	n	n	n	n	n	n	n	n	n	n	n	n	n	n	n	n	n	n	n	n	n	n	n	y	n	n	n	n	n	n	n	n	n	n	n	n	n	n	n	n	n	n	n	n	n	n	n	n	n	n	n	n	n	n	n	n	n	n	n	n
release                    res         0           emerg_5              rate       0.22253       0.00000              null	n	n	n	n	n	n	n	n	n	n	n	n	n	n	n	n	n	n	n	n	n	n	n	n	y	n	n	n	n	n	n	n	n	n	n	n	n	n	n	n	n	n	n	n	n	n	n	n	n	n	n	n	n	n	n	n	n	n	n	n
release                    res         0            over_6        inflo_rate       2.93987       0.00000              null	n	n	n	n	n	n	n	n	n	n	n	n	n	n	n	n	n	n	n	n	n	n	n	n	n	y	n	n	n	n	n	n	n	n	n	n	n	n	n	n	n	n	n	n	n	n	n	n	n	n	n	n	n	n	n	n	n	n	n	n
release                    res         0          normal_6              rate       2.93987       0.00000              null	n	n	n	n	n	n	n	n	n	n	n	n	n	n	n	n	n	n	n	n	n	n	n	n	n	n	y	n	n	n	n	n	n	n	n	n	n	n	n	n	n	n	n	n	n	n	n	n	n	n	n	n	n	n	n	n	n	n	n	n
release                    res         0          alerta_6              rate       0.84470       0.00000              null	n	n	n	n	n	n	n	n	n	n	n	n	n	n	n	n	n	n	n	n	n	n	n	n	n	n	n	y	n	n	n	n	n	n	n	n	n	n	n	n	n	n	n	n	n	n	n	n	n	n	n	n	n	n	n	n	n	n	n	n
release                    res         0           excep_6              rate       0.44375       0.00000              null	n	n	n	n	n	n	n	n	n	n	n	n	n	n	n	n	n	n	n	n	n	n	n	n	n	n	n	n	y	n	n	n	n	n	n	n	n	n	n	n	n	n	n	n	n	n	n	n	n	n	n	n	n	n	n	n	n	n	n	n
release                    res         0           emerg_6              rate       0.23219       0.00000              null	n	n	n	n	n	n	n	n	n	n	n	n	n	n	n	n	n	n	n	n	n	n	n	n	n	n	n	n	n	y	n	n	n	n	n	n	n	n	n	n	n	n	n	n	n	n	n	n	n	n	n	n	n	n	n	n	n	n	n	n
release                    res         0            over_7        inflo_rate       3.73130       0.00000              null	n	n	n	n	n	n	n	n	n	n	n	n	n	n	n	n	n	n	n	n	n	n	n	n	n	n	n	n	n	n	y	n	n	n	n	n	n	n	n	n	n	n	n	n	n	n	n	n	n	n	n	n	n	n	n	n	n	n	n	n
release                    res         0          normal_7              rate       3.73130       0.00000              null	n	n	n	n	n	n	n	n	n	n	n	n	n	n	n	n	n	n	n	n	n	n	n	n	n	n	n	n	n	n	n	y	n	n	n	n	n	n	n	n	n	n	n	n	n	n	n	n	n	n	n	n	n	n	n	n	n	n	n	n
release                    res         0          alerta_7              rate       2.50900       0.00000              null	n	n	n	n	n	n	n	n	n	n	n	n	n	n	n	n	n	n	n	n	n	n	n	n	n	n	n	n	n	n	n	n	y	n	n	n	n	n	n	n	n	n	n	n	n	n	n	n	n	n	n	n	n	n	n	n	n	n	n	n
release                    res         0           excep_7              rate       1.27788       0.00000              null	n	n	n	n	n	n	n	n	n	n	n	n	n	n	n	n	n	n	n	n	n	n	n	n	n	n	n	n	n	n	n	n	n	y	n	n	n	n	n	n	n	n	n	n	n	n	n	n	n	n	n	n	n	n	n	n	n	n	n	n
release                    res         0           emerg_7              rate       0.26930       0.00000              null	n	n	n	n	n	n	n	n	n	n	n	n	n	n	n	n	n	n	n	n	n	n	n	n	n	n	n	n	n	n	n	n	n	n	y	n	n	n	n	n	n	n	n	n	n	n	n	n	n	n	n	n	n	n	n	n	n	n	n	n
release                    res         0            over_8        inflo_rate       2.78100       0.00000              null	n	n	n	n	n	n	n	n	n	n	n	n	n	n	n	n	n	n	n	n	n	n	n	n	n	n	n	n	n	n	n	n	n	n	n	y	n	n	n	n	n	n	n	n	n	n	n	n	n	n	n	n	n	n	n	n	n	n	n	n
release                    res         0          normal_8              rate       2.78100       0.00000              null	n	n	n	n	n	n	n	n	n	n	n	n	n	n	n	n	n	n	n	n	n	n	n	n	n	n	n	n	n	n	n	n	n	n	n	n	y	n	n	n	n	n	n	n	n	n	n	n	n	n	n	n	n	n	n	n	n	n	n	n
release                    res         0          alerta_8              rate       2.18025       0.00000              null	n	n	n	n	n	n	n	n	n	n	n	n	n	n	n	n	n	n	n	n	n	n	n	n	n	n	n	n	n	n	n	n	n	n	n	n	n	y	n	n	n	n	n	n	n	n	n	n	n	n	n	n	n	n	n	n	n	n	n	n
release                    res         0           excep_8              rate       0.74268       0.00000              null	n	n	n	n	n	n	n	n	n	n	n	n	n	n	n	n	n	n	n	n	n	n	n	n	n	n	n	n	n	n	n	n	n	n	n	n	n	n	y	n	n	n	n	n	n	n	n	n	n	n	n	n	n	n	n	n	n	n	n	n
release                    res         0           emerg_8              rate       0.28614       0.00000              null	n	n	n	n	n	n	n	n	n	n	n	n	n	n	n	n	n	n	n	n	n	n	n	n	n	n	n	n	n	n	n	n	n	n	n	n	n	n	n	y	n	n	n	n	n	n	n	n	n	n	n	n	n	n	n	n	n	n	n	n
release                    res         0            over_9        inflo_rate       0.80746       0.00000              null	n	n	n	n	n	n	n	n	n	n	n	n	n	n	n	n	n	n	n	n	n	n	n	n	n	n	n	n	n	n	n	n	n	n	n	n	n	n	n	n	y	n	n	n	n	n	n	n	n	n	n	n	n	n	n	n	n	n	n	n
release                    res         0          normal_9              rate       0.80746       0.00000              null	n	n	n	n	n	n	n	n	n	n	n	n	n	n	n	n	n	n	n	n	n	n	n	n	n	n	n	n	n	n	n	n	n	n	n	n	n	n	n	n	n	y	n	n	n	n	n	n	n	n	n	n	n	n	n	n	n	n	n	n
release                    res         0          alerta_9              rate       0.78352       0.00000              null	n	n	n	n	n	n	n	n	n	n	n	n	n	n	n	n	n	n	n	n	n	n	n	n	n	n	n	n	n	n	n	n	n	n	n	n	n	n	n	n	n	n	y	n	n	n	n	n	n	n	n	n	n	n	n	n	n	n	n	n
release                    res         0           excep_9              rate       0.54745       0.00000              null	n	n	n	n	n	n	n	n	n	n	n	n	n	n	n	n	n	n	n	n	n	n	n	n	n	n	n	n	n	n	n	n	n	n	n	n	n	n	n	n	n	n	n	y	n	n	n	n	n	n	n	n	n	n	n	n	n	n	n	n
release                    res         0           emerg_9              rate       0.22949       0.00000              null	n	n	n	n	n	n	n	n	n	n	n	n	n	n	n	n	n	n	n	n	n	n	n	n	n	n	n	n	n	n	n	n	n	n	n	n	n	n	n	n	n	n	n	n	y	n	n	n	n	n	n	n	n	n	n	n	n	n	n	n
release                    res         0           over_10        inflo_rate       0.47692       0.00000              null	n	n	n	n	n	n	n	n	n	n	n	n	n	n	n	n	n	n	n	n	n	n	n	n	n	n	n	n	n	n	n	n	n	n	n	n	n	n	n	n	n	n	n	n	n	y	n	n	n	n	n	n	n	n	n	n	n	n	n	n
release                    res         0         normal_10              rate       0.47692       0.00000              null	n	n	n	n	n	n	n	n	n	n	n	n	n	n	n	n	n	n	n	n	n	n	n	n	n	n	n	n	n	n	n	n	n	n	n	n	n	n	n	n	n	n	n	n	n	n	y	n	n	n	n	n	n	n	n	n	n	n	n	n
release                    res         0         alerta_10              rate       0.48693       0.00000              null	n	n	n	n	n	n	n	n	n	n	n	n	n	n	n	n	n	n	n	n	n	n	n	n	n	n	n	n	n	n	n	n	n	n	n	n	n	n	n	n	n	n	n	n	n	n	n	y	n	n	n	n	n	n	n	n	n	n	n	n